! B3LYP D3 def2-TZVP OPT FREQ
%pal
   nprocs 16
end

%maxcore 2000

* xyz 0 1
C   3.6020   -0.3852   1.2167
C   3.7829   -1.5290   0.4537
C   3.0084   -1.6928   -0.6856
C   1.9424   0.2858   -0.3470
C   2.6585   0.5451   0.8154
C   0.8829   1.2554   -0.8142
C   -0.4327   0.9653   -0.0702
C   -2.8490   -0.5094   0.2128
C   -3.6569   0.7639   0.4415
C   -2.3458   -1.0995   1.5259
C   -3.6940   -1.5403   -0.5358
O   -0.6648   1.4745   0.9902
N   2.1046   -0.8041   -1.0870
S   -1.4420   -0.1869   -0.9327
F   1.2539   2.5404   -0.5137
H   4.1856   -0.2220   2.1135
H   4.5092   -2.2805   0.7308
H   3.1216   -2.5731   -1.3082
H   2.4702   1.4516   1.3736
H   0.7491   1.1585   -1.8923
H   -4.0128   1.1722   -0.5049
H   -3.0669   1.5189   0.9559
H   -4.5259   0.5223   1.0591
H   -1.7688   -2.0073   1.3474
H   -1.7305   -0.3864   2.0700
H   -3.2071   -1.3566   2.1479
H   -4.0474   -1.1474   -1.4903
H   -3.1311   -2.4559   -0.7224
H   -4.5643   -1.7904   0.0744
*
