! B3LYP D3 def2-TZVP OPT FREQ
%pal
   nprocs 16
end

%maxcore 2000

* xyz 0 1
C   -0.2862   1.1136   -0.4116
C   -1.4935   1.5362   0.4035
C   -2.4657   0.3912   0.1591
C   -1.5682   -0.8643   -0.0034
C   0.8309   -1.0359   -0.7436
C   2.2116   -0.5322   -0.3946
C   3.0973   -0.1257   -1.3836
C   4.3690   0.3296   -1.0540
C   4.7634   0.3840   0.2733
C   3.8812   -0.0178   1.2704
C   2.6154   -0.4710   0.9372
C   -1.9343   -1.5993   -1.3060
C   -1.6652   -1.8151   1.1978
C   -3.3706   -2.1103   -1.3735
C   -1.3594   -1.1671   2.5415
N   -0.1990   -0.2876   -0.0542
Cl   -2.1470   3.1233   -0.0850
H   0.6252   1.6479   -0.1420
H   -0.4828   1.2812   -1.4844
H   -1.2233   1.6256   1.4531
H   -3.2113   0.2892   0.9465
H   -2.9936   0.5948   -0.7739
H   0.7094   -1.0080   -1.8379
H   0.7509   -2.0832   -0.4390
H   2.7886   -0.1614   -2.4221
H   5.0477   0.6454   -1.8358
H   5.7519   0.7399   0.5333
H   4.1839   0.0230   2.3090
H   1.9202   -0.7775   1.7098
H   -1.7555   -0.9120   -2.1393
H   -1.2554   -2.4442   -1.4464
H   -2.6679   -2.2477   1.2242
H   -0.9751   -2.6486   1.0284
H   -3.5910   -2.4930   -2.3702
H   -4.0929   -1.3214   -1.1572
H   -3.5422   -2.9228   -0.6680
H   -2.0872   -0.3911   2.7874
H   -0.3712   -0.7086   2.5328
H   -1.3900   -1.9062   3.3422
*
