! B3LYP D3 def2-TZVP OPT FREQ
%pal
   nprocs 16
end

%maxcore 2000

* xyz 0 1
C   -2.2798   -0.2572   -0.7648
C   -1.7350   0.8958   0.0826
C   -0.9007   0.5250   1.2803
C   -0.5286   -0.9293   1.3843
O   0.0118   -1.3998   2.3432
C   -1.0693   -1.7985   0.2379
O   -2.4078   -1.4185   0.0599
O   -0.4041   -1.5155   -0.9835
C   -1.3292   -0.8037   -1.8115
H   -0.7920   -0.0562   -2.3866
H   -1.8543   -1.4966   -2.4706
H   -1.0030   -2.8546   0.4953
C   -0.2880   1.3492   0.1687
C   -0.1368   2.7581   0.4585
N   -0.0354   3.8732   0.7047
C   0.8852   0.8427   -0.6580
O   1.0516   1.1307   -1.8079
O   1.7088   0.1270   0.0863
C   2.8164   -0.4819   -0.6046
C   3.5503   -1.3343   0.3992
H   3.9297   -0.7254   1.2188
H   4.3917   -1.8286   -0.0858
H   2.8873   -2.0945   0.8112
H   2.4092   -1.0684   -1.4291
H   3.4397   0.3106   -1.0195
H   -1.0524   1.0154   2.2314
H   -2.4322   1.7089   0.2290
H   -3.2664   -0.0092   -1.1458
*
