!PAL16 GFN2-XTB OPT NUMFREQ 
%maxcore 2000MB
* xyz 0 1
O   -0.6052   0.5922   -0.7685
C   -1.7506   0.0461   -0.1664
O   -1.9967   -1.1790   -0.8061
C   -3.2141   -1.8356   -0.4735
C   -4.4050   -0.8816   -0.6227
O   -5.5604   -1.5339   -0.1464
H   -6.2695   -0.8802   -0.1450
C   -4.1799   0.4395   0.0845
O   -5.2839   1.2661   -0.2363
H   -5.0989   2.1440   0.1163
C   -2.8775   1.0416   -0.3900
O   -2.6576   2.2239   0.3354
H   -1.7941   2.5968   0.0924
H   -2.9389   1.2370   -1.4688
H   -4.1260   0.2761   1.1646
H   -4.5119   -0.6565   -1.6921
C   -3.1447   -2.5730   0.8504
O   -2.9643   -1.6622   1.9241
H   -3.1815   -2.1015   2.7496
H   -2.3028   -3.2712   0.7995
H   -4.0737   -3.1361   0.9644
H   -3.3224   -2.6121   -1.2341
H   -1.5842   -0.0926   0.9070
C   0.5561   0.6500   -0.0553
C   0.9750   2.1257   0.0869
O   0.1639   3.0227   0.1022
N   2.3067   2.3143   0.2535
C   3.2362   1.2668   0.2094
C   4.5500   1.4182   0.6223
C   5.4453   0.3665   0.5039
C   5.0086   -0.8382   -0.0236
C   3.6943   -1.0134   -0.4278
C   2.8106   0.0438   -0.3079
O   1.5334   -0.1022   -0.7528
H   3.3487   -1.9510   -0.8393
Cl  6.1203   -2.1560   -0.1745
H   6.4729   0.4785   0.8174
H   4.8777   2.3676   1.0274
H   2.6172   3.2601   0.4242
H   0.4368   0.2338   0.9560
*
