! wB97M-D4 def2-TZVP OPT FREQ
%pal
   nprocs 16
end

%maxcore 2000

* xyz 0 1
C   -0.6818   -2.0640   0.0373
C   0.2963   -0.9835   0.5455
C   -1.6315   -0.0523   0.0378
C   -2.4468   2.1941   0.1023
C   -4.0189   0.3338   -0.2537
C   1.6043   -0.9525   -0.2326
C   2.5801   0.0928   0.2879
C   3.8725   0.1524   -0.5168
C   4.8465   1.1946   0.0177
O   -1.9247   -1.3703   -0.1295
N   -0.4558   0.2634   0.4122
N   -2.6478   0.8026   -0.2453
H   -0.8381   -2.8858   0.7335
H   -0.3794   -2.4630   -0.9339
H   0.5289   -1.1404   1.6050
H   -2.6421   2.3784   1.1647
H   -1.4192   2.4728   -0.1123
H   -3.1255   2.8047   -0.4930
H   -4.0642   -0.6790   -0.6407
H   -4.4612   0.3513   0.7494
H   -4.6073   0.9854   -0.8999
H   2.0672   -1.9453   -0.1905
H   1.3715   -0.7520   -1.2840
H   2.0886   1.0688   0.2761
H   2.8155   -0.1226   1.3361
H   4.3488   -0.8329   -0.5129
H   3.6341   0.3733   -1.5614
H   5.1200   0.9760   1.0518
H   5.7635   1.2289   -0.5712
H   4.3975   2.1895   -0.0011
*
