! wB97M-D4 def2-TZVP OPT FREQ
%pal
   nprocs 16
end

%maxcore 2000

* xyz 0 1
C   -2.7789   -2.0323   0.7640
C   -2.2619   -0.7565   1.4157
C   -2.0985   0.2885   0.3157
C   -1.3156   -0.4341   -0.8128
C   0.1529   -0.5075   -0.5212
N   0.7344   -1.2934   0.3379
C   2.0737   -0.9538   0.2928
C   2.2808   0.0773   -0.6401
C   3.5373   0.6191   -0.8900
C   4.5940   0.0939   -0.1699
C   4.4056   -0.9377   0.7637
C   3.1549   -1.4720   1.0049
H   3.0041   -2.2685   1.7211
H   5.2625   -1.3200   1.3023
H   5.5901   0.4844   -0.3313
H   3.6848   1.4107   -1.6127
N   1.0295   0.3366   -1.1507
H   0.7616   1.0752   -1.7818
S   -2.0987   -2.0702   -0.9337
H   -1.4670   0.0821   -1.7584
C   -3.4339   0.8269   -0.1732
H   -3.2933   1.5489   -0.9746
H   -3.9543   1.3070   0.6562
H   -4.0476   0.0079   -0.5469
O   -1.3311   1.3543   0.9181
C   -0.8522   2.3526   0.1703
O   -1.0163   2.4477   -1.0198
C   -0.0419   3.3046   0.9994
H   0.1445   4.2114   0.4325
H   0.9068   2.8198   1.2387
H   -0.5485   3.5258   1.9363
H   -2.9372   -0.3940   2.1919
H   -1.2808   -0.9360   1.8539
H   -3.8660   -2.0453   0.6979
H   -2.4478   -2.9177   1.3006
*
