! wB97M-D4 def2-TZVP OPT FREQ
%pal
   nprocs 16
end

%maxcore 2000

* xyz 0 1
Cl   -3.7109   -1.0171   0.1954
O   -3.2555   1.5190   0.2839
C   2.9749   -0.0588   -0.6588
C   1.4865   0.0571   -0.4926
C   3.6923   -0.1542   0.6920
C   0.6834   -1.0797   -0.4490
C   0.8854   1.3046   -0.3234
C   5.2018   -0.2698   0.5326
C   -0.6828   -0.9838   -0.2441
C   -0.4763   1.4136   -0.1186
C   -1.2698   0.2662   -0.0777
C   -2.7204   0.4742   0.1431
H   3.2128   -0.9434   -1.2547
H   3.3541   0.8084   -1.2053
H   3.4423   0.7269   1.2886
H   3.3032   -1.0170   1.2389
H   1.1364   -2.0551   -0.5817
H   1.4972   2.1985   -0.3575
H   5.6987   -0.3373   1.5003
H   5.6058   0.5978   0.0077
H   5.4660   -1.1587   -0.0430
H   -1.2917   -1.8759   -0.2167
H   -0.9462   2.3795   0.0089
*
