! GFN2-XTB OPT NUMFREQ

%pal
   nprocs 16
end

%maxcore 2000

* xyz 0 1
C   -1.4246   0.8374   0.2435
C   -2.8129   0.7001   0.8864
C   -3.4125   -0.5776   0.2896
C   -2.1946   -1.4918   0.1632
C   -1.1378   -0.5480   -0.4007
N   0.2156   -1.0276   -0.1926
C   1.2767   -0.3317   -0.6508
O   1.1408   0.7469   -1.2114
C   2.6448   -0.9451   -0.4376
C   3.6165   0.0813   0.1392
C   3.1926   0.5537   1.5239
H   2.2139   1.0364   1.4844
H   3.1292   -0.2840   2.2222
H   3.9011   1.2752   1.9302
H   3.6623   0.9295   -0.5448
H   4.6139   -0.3599   0.1797
H   2.9926   -1.2874   -1.4151
H   2.5779   -1.8195   0.2145
H   0.3631   -1.9130   0.2614
H   -1.2994   -0.4195   -1.4757
H   -2.3579   -2.3680   -0.4648
H   -1.8887   -1.8350   1.1578
H   -4.2085   -1.0058   0.8971
H   -3.8203   -0.3730   -0.7029
H   -2.7116   0.5845   1.9671
H   -3.4038   1.5941   0.6959
O   -1.4554   1.8633   -0.7187
H   -0.5900   1.8424   -1.1543
H   -0.6552   1.0457   0.9960
*
