! GFN2-XTB OPT NUMFREQ

%pal
   nprocs 16
end

%maxcore 2000

* xyz 0 1
S   1.2934   -1.6445   -0.0075
C   -0.5034   -1.3800   0.1474
C   -0.7508   0.0440   0.0625
C   0.4799   0.8196   0.0042
C   1.6113   0.0609   -0.0786
O   -1.2438   -2.3043   0.3809
C   -2.0028   0.6133   0.2257
N   -3.1881   0.0717   -0.0193
C   -3.3937   -1.1022   -0.8504
C   0.5464   2.2779   0.0088
O   -0.4126   3.0190   0.0138
S   3.2203   0.6586   -0.3976
C   4.2314   -0.5617   0.4676
C   -4.3975   0.7357   0.4334
H   -2.0401   1.6399   0.5693
H   1.5670   2.6946   0.0314
H   -2.5365   -1.2313   -1.5062
H   -4.2883   -0.9290   -1.4502
H   -3.5111   -2.0071   -0.2577
H   4.1511   -1.5401   -0.0009
H   3.9529   -0.6185   1.5172
H   5.2567   -0.2074   0.3802
H   -4.9575   0.0778   1.1007
H   -5.0305   0.9861   -0.4200
H   -4.1405   1.6442   0.9719
*
