! GFN2-XTB OPT NUMFREQ

%pal
   nprocs 16
end

%maxcore 2000

* xyz 0 1
C   -2.9886   -0.8641   -0.2802
C   -1.6950   -0.7157   -0.5880
C   -1.2097   0.2298   -1.5719
C   0.0750   0.4836   -1.8349
C   1.2459   -0.1448   -1.1503
C   2.1663   0.8622   -0.4598
C   1.5825   1.5478   0.7694
C   0.9442   0.5859   1.7684
C   0.5847   1.2484   3.0812
H   0.1148   0.5250   3.7472
H   -0.1137   2.0658   2.9078
H   1.4809   1.6413   3.5633
O   1.9059   -0.4476   2.0146
C   1.4911   -1.7273   1.9945
O   0.3607   -2.0522   1.7403
C   2.5992   -2.6634   2.3634
H   2.7511   -2.6119   3.4428
H   3.5178   -2.3661   1.8651
H   2.3217   -3.6732   2.0791
H   0.0534   0.1485   1.3181
O   0.5248   2.4517   0.4254
C   0.8724   3.6364   -0.1089
O   2.0099   3.9764   -0.2784
C   -0.3453   4.4411   -0.4556
H   -0.9650   3.8740   -1.1503
H   -0.0429   5.3848   -0.8976
H   -0.9368   4.6154   0.4428
H   2.3785   2.1168   1.2554
H   2.4728   1.6264   -1.1759
H   3.0614   0.3274   -0.1400
O   2.0135   -0.8022   -2.1846
C   2.7817   -1.8282   -1.7962
O   2.8586   -2.2077   -0.6568
C   3.5174   -2.4279   -2.9583
H   4.1549   -1.6702   -3.4130
H   2.8022   -2.7532   -3.7128
H   4.1147   -3.2663   -2.6150
H   0.9299   -0.9111   -0.4461
H   0.3248   1.2155   -2.5973
H   -1.9700   0.7747   -2.1200
H   -1.0094   -1.3523   -0.0429
C   -3.5839   -1.7646   0.6894
C   -4.9054   -1.5732   0.6758
C   -5.2007   -0.5243   -0.3210
O   -6.2295   -0.0359   -0.6639
O   -3.9884   -0.1355   -0.8665
H   -5.6767   -2.0531   1.2540
H   -2.9998   -2.4446   1.2910
*
