! GFN2-XTB OPT NUMFREQ

%pal
   nprocs 16
end

%maxcore 2000

* xyz 0 1
N   0.0005   2.7032   -2.5793
C   0.0007   3.8579   -1.9187
C   0.0006   3.9423   -0.5342
C   0.0004   2.7692   0.2031
C   0.0002   1.5524   -0.4642
C   0.0002   1.5884   -1.8559
C   -0.0000   0.2248   0.2815
C   1.2571   -0.5725   -0.0219
C   1.2226   -1.5144   -0.9983
N   -0.0001   -1.8397   -1.5491
C   -1.2229   -1.5141   -0.9985
C   -1.2573   -0.5723   -0.0221
C   2.4628   -0.2358   0.7314
S   2.5383   0.9424   1.8736
C   2.3587   -2.2974   -1.5940
C   -2.3591   -2.2967   -1.5945
C   -2.4630   -0.2354   0.7311
S   -2.5386   0.9432   1.8729
O   3.5106   -0.9993   0.4088
C   4.7699   -0.7897   1.0486
C   5.7378   -1.7837   0.4520
O   -3.5107   -0.9992   0.4088
C   -4.7701   -0.7895   1.0486
C   -5.7378   -1.7837   0.4524
H   0.0008   4.7571   -2.5255
H   0.0008   4.9081   -0.0471
H   0.0003   2.7842   1.2853
H   0.0001   0.6592   -2.4197
H   -0.0001   0.4572   1.3438
H   -0.0002   -2.5331   -2.2774
H   2.0170   -2.8379   -2.4771
H   2.7526   -3.0166   -0.8771
H   3.1783   -1.6446   -1.8805
H   -3.1787   -1.6438   -1.8805
H   -2.0175   -2.8366   -2.4780
H   -2.7528   -3.0164   -0.8780
H   5.0819   0.2428   0.8837
H   4.6454   -0.9276   2.1239
H   5.8417   -1.6271   -0.6218
H   6.7180   -1.6644   0.9131
H   5.3987   -2.8053   0.6241
H   -5.0821   0.2430   0.8833
H   -4.6455   -0.9269   2.1239
H   -5.8419   -1.6275   -0.6214
H   -6.7180   -1.6644   0.9134
H   -5.3986   -2.8052   0.6248
*
