! GFN2-XTB OPT NUMFREQ

%pal
   nprocs 16
end

%maxcore 2000

* xyz 0 1
C   3.2929   2.0042   0.0946
C   2.3912   1.8431   1.1715
C   2.0794   0.6078   1.6454
C   3.5270   -0.4518   -0.0169
C   3.8461   0.8876   -0.4745
C   3.5840   3.3854   -0.4034
C   4.7541   0.9841   -1.5743
C   1.1103   0.4161   2.7683
C   2.3312   -1.8387   1.5960
C   0.9248   -2.4774   -0.1860
C   -0.5110   -2.8519   -0.4540
C   -3.0190   0.1157   -0.3974
C   -4.0062   -0.1749   -1.3287
C   -5.3002   0.2487   -1.0842
C   -5.6186   0.9575   0.0746
C   -4.6061   1.2359   0.9892
C   -3.3034   0.8218   0.7602
C   -7.0238   1.4337   0.3094
O   3.9514   -1.4732   -0.5217
O   1.0633   -2.2699   1.2045
O   -1.4392   -1.8415   -0.0061
O   -0.4715   0.4083   0.0386
O   -1.1683   -0.6149   -2.0991
N   2.6546   -0.5043   1.0903
N   5.4843   1.1057   -2.4520
S   -1.3765   -0.4193   -0.6982
H   1.9201   2.7096   1.6115
H   3.8116   4.0445   0.4350
H   4.4106   3.4017   -1.1092
H   2.6959   3.7825   -0.8999
H   0.3442   -0.3064   2.4880
H   0.6384   1.3675   2.9985
H   1.6166   0.0578   3.6674
H   3.1125   -2.5034   1.2313
H   2.3253   -1.8158   2.6820
H   1.1952   -1.5763   -0.7442
H   1.5786   -3.2883   -0.5260
H   -0.6616   -3.0272   -1.5193
H   -0.7945   -3.7333   0.1168
H   -3.7513   -0.7137   -2.2316
H   -6.0789   0.0302   -1.8048
H   -4.8403   1.7875   1.8913
H   -2.5103   1.0458   1.4610
H   -7.7481   0.6706   0.0252
H   -7.1850   1.6923   1.3546
H   -7.2294   2.3217   -0.2920
*
