! GFN2-XTB OPT NUMFREQ

%pal
   nprocs 16
end

%maxcore 2000

* xyz 0 1
C   -3.5182   -1.0092   0.0000
C   -4.8008   -0.4925   0.0000
C   -4.9722   0.8847   0.0000
C   -2.4533   -0.1132   -0.0000
C   -3.8429   1.6910   -0.0000
C   -1.0735   -0.5981   -0.0000
C   1.0735   -0.5981   -0.0000
C   2.4533   -0.1132   0.0000
C   3.8429   1.6910   0.0000
C   4.9722   0.8847   0.0000
C   4.8008   -0.4925   0.0000
C   3.5182   -1.0092   0.0000
N   2.6043   1.2114   0.0000
N   -2.6043   1.2114   -0.0000
N   0.6785   -1.8482   -0.0000
N   -0.6785   -1.8482   -0.0000
N   0.0000   0.2258   -0.0001
H   -3.3172   -2.0714   0.0000
H   -5.6571   -1.1545   0.0001
H   -5.9577   1.3293   0.0000
H   -3.9374   2.7711   -0.0000
H   3.9374   2.7711   0.0000
H   5.9577   1.3293   0.0000
H   5.6571   -1.1545   0.0000
H   3.3172   -2.0714   0.0000
H   0.0000   1.2348   -0.0001
*
