! GFN2-XTB OPT NUMFREQ

%pal
   nprocs 16
end

%maxcore 2000

* xyz 0 1
O   -2.2340   -0.2044   0.3985
C   -2.4095   -1.4188   -0.1916
N   -3.1479   -1.4742   -1.2152
C   -3.5642   -0.1038   -1.5109
C   -3.1719   0.6898   -0.2274
C   -1.6654   -2.5594   0.4331
C   -0.3338   -2.7768   -0.3001
C   0.5671   -1.5494   -0.3307
C   1.9189   -1.8355   -0.9703
C   2.8191   -0.6096   -1.0174
N   3.0928   -0.0763   0.3251
S   4.5352   -0.4430   0.9962
O   4.4889   -0.0127   2.3593
C   -5.0223   -0.0394   -1.9029
O   -5.2917   1.2773   -2.3230
C   -6.6678   1.5266   -2.4564
C   -4.3124   0.9869   0.7145
C   -4.6938   0.0788   1.6958
C   -5.7881   0.3414   2.5091
C   -6.5102   1.5154   2.3505
C   -6.1275   2.4309   1.3786
C   -5.0337   2.1681   0.5673
C   -2.5158   -3.8254   0.4123
C   2.4895   1.2072   0.6590
O   4.8154   -1.8023   0.6462
C   5.7199   0.5753   0.1594
C   5.8957   1.8888   0.5785
C   6.7785   2.7059   -0.1110
C   7.4782   2.2093   -1.2037
C   7.3045   0.8923   -1.6067
C   6.4218   0.0664   -0.9252
H   -2.9796   0.2640   -2.3600
H   -2.6465   1.6110   -0.4726
H   -1.4479   -2.2694   1.4644
H   0.1908   -3.6003   0.1928
H   -0.5552   -3.1028   -1.3210
H   0.7194   -1.1875   0.6906
H   0.0688   -0.7415   -0.8781
H   1.7772   -2.1993   -1.9926
H   2.4393   -2.6195   -0.4151
H   2.3473   0.1907   -1.5935
H   3.7575   -0.8534   -1.5185
H   -5.2114   -0.7533   -2.7128
H   -5.6584   -0.3135   -1.0514
H   -6.7850   2.5475   -2.8153
H   -7.1772   1.4214   -1.4910
H   -7.1268   0.8389   -3.1759
H   -4.1278   -0.8340   1.8317
H   -6.0746   -0.3725   3.2705
H   -7.3614   1.7208   2.9864
H   -6.6784   3.3547   1.2562
H   -4.7427   2.8761   -0.1990
H   -3.4462   -3.6872   0.9635
H   -2.7707   -4.0861   -0.6146
H   -1.9656   -4.6527   0.8613
H   1.4148   1.1349   0.4919
H   2.6629   1.4252   1.7095
H   2.8912   2.0187   0.0409
H   5.3639   2.2486   1.4497
H   6.9289   3.7277   0.2112
H   8.1705   2.8488   -1.7357
H   7.8635   0.5034   -2.4476
H   6.2914   -0.9706   -1.2049
*
