! GFN2-XTB OPT NUMFREQ

%pal
   nprocs 16
end

%maxcore 2000

* xyz 0 1
C   -2.3846   -0.2488   0.0225
C   -0.9466   -0.0170   0.5178
C   -0.0074   -0.7800   -0.4166
C   2.3013   0.0349   -0.1582
C   3.6991   -0.3106   0.2918
O   2.0530   1.0826   -0.7283
O   -3.0231   0.8579   -0.3291
O   -2.8646   -1.3448   -0.0449
N   1.3454   -0.8945   0.0935
N   -0.6414   1.4085   0.5664
H   -0.8958   -0.4797   1.5068
H   0.0352   -0.2649   -1.3790
H   -0.4112   -1.7779   -0.5750
H   4.1284   0.5567   0.7885
H   3.7363   -1.1723   0.9559
H   4.2992   -0.5178   -0.5944
H   -2.3807   1.5856   -0.1729
H   1.6127   -1.7472   0.5538
H   -0.5563   1.7543   1.5116
H   0.2110   1.6289   0.0591
*
