! GFN2-XTB OPT NUMFREQ

%pal
   nprocs 16
end

%maxcore 2000

* xyz 0 1
C   -0.6401   1.1231   0.9064
C   0.3052   1.6822   -0.1556
C   1.6109   0.9010   -0.0554
C   -0.7196   -0.3731   0.8217
C   -1.9473   -1.0864   1.3300
C   -2.8847   -1.5113   0.2136
C   2.4166   -1.3612   -0.3798
C   2.1510   -2.8400   -0.4323
C   -0.2863   1.4812   -1.5519
C   0.5694   3.1643   0.0857
O   3.5239   -0.8815   -0.5288
O   2.2585   1.2074   1.1521
N   0.1959   -1.1127   0.3388
N   1.3395   -0.5327   -0.1451
Cl   -3.5621   -0.1034   -0.6648
H   -0.2828   1.3956   1.9058
H   -1.6399   1.5466   0.7899
H   2.2571   1.1379   -0.9029
H   -2.4816   -0.4505   2.0377
H   -1.6365   -1.9936   1.8523
H   -3.7339   -2.0693   0.5992
H   -2.3538   -2.1101   -0.5224
H   1.3070   -3.0639   -1.0814
H   1.8963   -3.2037   0.5628
H   3.0555   -3.3259   -0.7854
H   -0.4925   0.4309   -1.7623
H   0.4000   1.8561   -2.3137
H   -1.2261   2.0283   -1.6395
H   -0.3627   3.7248   -0.0079
H   0.9856   3.3334   1.0772
H   1.2744   3.5543   -0.6516
H   3.1320   0.7980   1.1072
*
