! GFN2-XTB OPT NUMFREQ

%pal
   nprocs 16
end

%maxcore 2000

* xyz 0 1
C   0.3461   0.3721   -0.0443
C   -1.0326   0.4772   0.0919
C   -1.8339   -0.6761   0.0221
N   -1.3090   -1.8756   -0.1694
C   0.0119   -1.9811   -0.3015
C   0.8813   -0.9055   -0.2526
C   -3.3174   -0.5498   0.1801
O   -1.6724   1.6483   0.3198
H   -1.0709   2.3743   0.0886
C   1.2356   1.5796   0.0904
O   0.6121   2.6987   -0.5432
H   1.1552   3.4794   -0.4059
C   2.3628   -1.1257   -0.3789
O   3.0790   -0.6785   0.7632
H   2.7323   -1.1408   1.5329
H   0.4011   -2.9824   -0.4582
H   -3.7716   -1.5329   0.0905
H   -3.7284   0.1193   -0.5777
H   -3.5674   -0.1152   1.1495
H   1.3989   1.7905   1.1531
H   2.2102   1.3891   -0.3579
H   2.5568   -2.1847   -0.5724
H   2.7732   -0.5612   -1.2184
*
