! GFN2-XTB OPT NUMFREQ

%pal
   nprocs 16
end

%maxcore 2000

* xyz 0 1
C   -1.1235   -1.5425   0.2675
C   -2.4650   -1.8105   0.0142
C   -3.3522   -0.7746   -0.2507
C   -2.9099   0.5442   -0.2654
C   -1.5736   0.8090   -0.0165
C   -0.6828   -0.2290   0.2491
C   0.6184   1.7291   -0.1025
C   0.7089   0.3105   0.4968
C   -0.8585   2.1355   0.0364
C   1.8349   -0.5409   -0.0761
C   3.2190   0.0544   0.1552
C   4.3322   -0.8409   -0.3735
H   -0.4362   -2.3555   0.4689
H   -2.8196   -2.8333   0.0180
H   -4.3923   -0.9964   -0.4523
H   -3.6023   1.3506   -0.4765
H   1.3016   2.4348   0.3687
H   0.8778   1.6703   -1.1642
H   0.8583   0.3934   1.5819
H   -1.0383   2.6167   1.0029
H   -1.1863   2.8302   -0.7372
H   1.6650   -0.6726   -1.1506
H   1.7993   -1.5409   0.3678
H   3.2784   1.0346   -0.3256
H   3.3601   0.2281   1.2265
H   4.3137   -1.8157   0.1178
H   5.3155   -0.4006   -0.2070
H   4.2177   -1.0095   -1.4460
*
