! GFN2-XTB OPT NUMFREQ

%pal
   nprocs 16
end

%maxcore 2000

* xyz 0 1
C   -1.4263   0.0208   0.2150
C   -2.6549   0.6046   0.4962
C   -3.8299   -0.0199   0.0902
C   -3.7610   -1.2365   -0.5884
C   -2.5353   -1.8041   -0.8582
C   -1.3346   -1.1871   -0.4769
C   -5.1861   1.6948   0.9986
C   -0.0769   -1.8491   -0.8165
C   1.1708   -1.3608   -0.8028
C   2.6474   0.2971   -0.1088
C   3.0012   -1.8733   1.5817
C   1.8720   2.7248   -1.0699
O   -5.0750   0.4672   0.3160
N   1.5008   -0.0398   -0.5293
S   3.1631   1.9704   -0.0689
S   3.9413   -0.7606   0.5040
H   -0.5236   0.5122   0.5463
H   -2.6811   1.5386   1.0386
H   -4.6839   -1.7139   -0.8895
H   -2.4955   -2.7499   -1.3860
H   -4.6887   2.4991   0.4498
H   -4.7619   1.6286   2.0042
H   -6.2491   1.9090   1.0688
H   -0.1728   -2.8816   -1.1344
H   1.9949   -2.0135   -1.0857
H   2.1825   -1.3271   2.0447
H   3.6966   -2.2016   2.3513
H   2.6111   -2.7327   1.0446
H   0.9089   2.6355   -0.5751
H   1.8247   2.2422   -2.0431
H   2.1441   3.7727   -1.1798
*
