! GFN2-XTB OPT NUMFREQ

%pal
   nprocs 16
end

%maxcore 2000

* xyz 0 1
C   -2.0247   -0.3030   0.0001
C   -3.2250   -0.9365   -0.0001
C   -4.2097   0.0913   -0.0001
C   -3.5234   1.2613   -0.0001
C   -0.6735   -0.8721   0.0002
C   1.5939   -0.2152   0.0000
C   3.7150   0.4072   -0.0001
C   3.6869   -0.9604   -0.0001
C   2.3266   -1.3733   -0.0000
C   1.9894   2.2437   0.0000
O   -0.4512   -2.0481   0.0000
O   -2.1967   1.0404   0.0001
O   0.2612   0.0961   0.0001
N   2.4229   0.8643   -0.0000
H   -3.3662   -2.0036   -0.0001
H   -5.2798   -0.0222   -0.0003
H   -3.8300   2.2928   -0.0001
H   4.5371   1.1022   -0.0002
H   4.5469   -1.6080   -0.0002
H   1.9362   -2.3725   0.0000
H   2.8726   2.8774   -0.0001
H   1.3921   2.4599   -0.8853
H   1.3923   2.4599   0.8855
*
