! GFN2-XTB OPT NUMFREQ

%pal
   nprocs 16
end

%maxcore 2000

* xyz 0 1
C   -0.7067   1.2268   0.6275
C   -2.0380   0.8810   0.7688
C   -2.5801   -0.1233   -0.0335
C   -1.7807   -0.7718   -0.9707
C   -0.4483   -0.4138   -1.0988
C   0.1089   0.5877   -0.3073
C   1.5717   0.9425   -0.4379
C   2.3545   0.5611   0.8293
C   2.1701   -0.8821   1.2741
C   2.6936   -1.9089   0.3089
C   -3.9611   -0.4881   0.1102
C   1.7717   2.4246   -0.7539
O   3.2850   -1.6566   -0.7051
N   -5.0648   -0.7801   0.2278
H   -0.2952   2.0070   1.2566
H   -2.6655   1.3808   1.4944
H   -2.2063   -1.5494   -1.5907
H   0.1748   -0.9203   -1.8265
H   1.9792   0.3581   -1.2636
H   2.0528   1.2222   1.6468
H   3.4141   0.7485   0.6416
H   2.6794   -1.0684   2.2264
H   1.1168   -1.1181   1.4628
H   2.5089   -2.9626   0.5969
H   1.2386   2.7077   -1.6616
H   2.8315   2.6394   -0.8970
H   1.4102   3.0550   0.0609
*
