! GFN2-XTB OPT NUMFREQ

%pal
   nprocs 16
end

%maxcore 2000

* xyz 0 1
C   -3.3492   -0.1734   -0.6736
C   -2.9303   1.1476   -0.7472
C   -1.2013   0.6628   0.6726
C   -1.6574   -0.6604   0.7160
C   0.0383   1.1622   1.3909
C   1.2781   0.7317   0.6270
C   2.2149   -0.1129   1.1928
C   3.3610   -0.4922   0.4991
C   3.5685   -0.0118   -0.7877
C   2.6291   0.8442   -1.3685
C   1.5000   1.2059   -0.6671
C   5.6200   -1.1720   -1.0055
O   -0.0268   2.5543   1.5590
O   4.6453   -0.3132   -1.5527
N   -1.8638   1.5400   -0.0666
N   -2.7173   -1.0675   0.0574
Cl   -4.7415   -0.6825   -1.5512
Cl   -0.8296   -1.8345   1.6682
H   -3.4592   1.8758   -1.3473
H   0.0703   0.7104   2.3848
H   2.0585   -0.4871   2.1978
H   4.0741   -1.1511   0.9721
H   2.8147   1.2083   -2.3701
H   0.7791   1.8752   -1.1238
H   5.1954   -2.1511   -0.7679
H   6.3869   -1.2858   -1.7667
H   6.0641   -0.7420   -0.1036
H   -0.5867   2.9099   0.8557
*
