! GFN2-XTB OPT NUMFREQ

%pal
   nprocs 16
end

%maxcore 2000

* xyz 0 1
O   1.6612   1.4643   0.2069
C   0.4162   1.9333   0.0820
C   -0.6789   1.1467   -0.0576
C   -0.5118   -0.2997   -0.0874
C   0.8788   -0.7222   -0.1747
C   1.8914   0.1278   0.0172
O   0.3578   3.2529   0.0774
C   1.5727   4.0006   0.0551
C   -1.9677   1.7858   -0.4576
O   -2.6088   1.4105   -1.3993
C   -1.5066   -1.2259   -0.0266
C   -2.8994   -0.9881   0.4829
F   -3.0155   0.1807   1.1317
C   3.3226   -0.2031   0.0575
C   3.7416   -1.5097   0.3119
C   5.0902   -1.8206   0.3226
C   6.0382   -0.8327   0.0888
C   5.6291   0.4708   -0.1509
C   4.2796   0.7868   -0.1642
O   -2.3178   2.8047   0.3237
C   -3.5597   3.4194   -0.0175
C   -1.2171   -2.6708   -0.3317
F   -0.5278   -3.2934   0.6462
F   -3.2190   -1.9319   1.3865
F   -3.8491   -1.0195   -0.4518
F   -0.4800   -2.8161   -1.4477
F   -2.3318   -3.3730   -0.5277
H   1.1237   -1.7577   -0.3338
H   2.1687   3.7998   0.9439
H   1.2623   5.0402   0.0391
H   2.1506   3.7691   -0.8395
H   3.0140   -2.2814   0.5252
H   5.4028   -2.8363   0.5250
H   7.0919   -1.0782   0.1008
H   6.3626   1.2458   -0.3301
H   3.9647   1.8035   -0.3549
H   -3.7054   4.2131   0.7085
H   -3.5193   3.8224   -1.0283
H   -4.3644   2.6877   0.0420
*
