! GFN2-XTB OPT NUMFREQ

%pal
   nprocs 16
end

%maxcore 2000

* xyz 0 1
C   -0.1681   -0.4356   0.0084
C   0.5498   0.5224   0.7020
C   1.9363   0.5377   0.6369
C   2.6021   -0.4313   -0.1067
C   1.8725   -1.4129   -0.7806
C   0.4959   -1.4137   -0.7299
C   -2.5912   0.4866   0.0548
C   -3.6627   -0.5675   0.2455
C   -2.4770   -1.5385   0.2088
C   -2.6385   1.8113   -0.1133
C   -1.5129   2.6434   -0.3619
C   4.7235   0.4783   0.4176
O   -2.3010   -2.7128   0.2581
O   3.9466   -0.5042   -0.2322
N   -1.5817   -0.4673   0.0703
N   -0.6263   3.3472   -0.5617
H   0.0348   1.2668   1.2932
H   2.4767   1.3060   1.1687
H   2.4123   -2.1601   -1.3460
H   -0.0741   -2.1706   -1.2514
H   -4.3710   -0.6730   -0.5735
H   -4.1788   -0.5378   1.2031
H   -3.6040   2.2958   -0.0865
H   4.4787   1.4789   0.0525
H   4.5801   0.4415   1.5007
H   5.7592   0.2497   0.1824
*
