! GFN2-XTB OPT NUMFREQ

%pal
   nprocs 16
end

%maxcore 2000

* xyz 0 1
O   1.8609   2.4308   0.7099
C   0.7220   3.1163   0.4945
C   -0.3572   2.6578   -0.1594
C   -0.3381   1.2768   -0.6024
C   -1.1199   0.5996   -1.4480
C   -0.6267   -0.8130   -1.6086
C   0.7558   -0.7737   -0.9760
C   1.6216   -1.9399   -0.8731
O   1.8559   -0.9342   -1.8537
H   2.3539   -1.9771   -0.0744
H   1.2747   -2.8899   -1.2637
C   0.7783   0.4235   -0.0481
C   2.0448   1.2419   -0.0555
O   3.0735   0.5240   0.5626
C   4.3467   0.8637   0.2117
O   4.5957   1.7388   -0.5618
C   5.3668   -0.0092   0.8869
C   6.1934   -0.7713   -0.1577
C   7.3142   -1.5752   0.5015
C   8.3263   -0.7369   1.2733
H   8.7153   0.0722   0.6515
H   9.1708   -1.3459   1.5956
H   7.8898   -0.2906   2.1675
H   7.8323   -2.1317   -0.2841
H   6.8695   -2.3256   1.1641
C   5.2935   -1.6827   -0.9869
H   4.4882   -1.1308   -1.4773
H   5.8679   -2.1923   -1.7615
H   4.8424   -2.4487   -0.3495
H   6.6433   -0.0239   -0.8185
H   6.0087   0.6548   1.4677
H   4.8737   -0.7037   1.5689
H   2.3381   1.5272   -1.0674
H   0.5635   0.1321   0.9858
O   -1.4220   -1.7341   -0.8342
C   -2.6370   -2.0145   -1.3312
O   -3.0229   -1.6144   -2.3949
C   -3.4440   -2.8506   -0.3736
C   -4.3657   -1.9727   0.4939
C   -5.4003   -1.2440   -0.3504
H   -5.9960   -1.9623   -0.9134
H   -6.0638   -0.6733   0.3003
H   -4.9234   -0.5629   -1.0549
C   -5.0450   -2.8176   1.5628
H   -4.3209   -3.3654   2.1603
H   -5.6375   -2.1753   2.2157
H   -5.7190   -3.5270   1.0808
O   -3.6104   -0.8908   1.1004
C   -2.5820   -1.1267   1.9347
O   -2.1957   -2.2179   2.2478
C   -2.0103   0.1708   2.4321
H   -1.8170   0.8444   1.5964
H   -1.1031   -0.0255   2.9957
H   -2.7417   0.6578   3.0791
H   -2.7818   -3.4293   0.2647
H   -4.0764   -3.5158   -0.9607
H   -0.5934   -1.1586   -2.6417
H   -1.9972   0.9770   -1.9555
C   -1.5363   3.5371   -0.4110
O   -2.6552   3.1192   0.3889
C   -3.7468   2.6386   -0.2381
O   -3.8363   2.5133   -1.4278
C   -4.8129   2.2716   0.7510
H   -4.8765   3.0174   1.5405
H   -4.5448   1.3120   1.1965
H   -5.7611   2.1705   0.2311
H   -1.3175   4.5641   -0.1205
H   -1.8295   3.5139   -1.4602
H   0.7744   4.1158   0.9087
*
