! GFN2-XTB OPT NUMFREQ

%pal
   nprocs 16
end

%maxcore 2000

* xyz 0 1
C   1.2227   -1.9148   -0.5552
O   2.0203   -2.5756   -1.1550
C   -0.2192   -1.7575   -0.8258
C   -0.7239   -0.7520   -0.1038
C   0.3379   -0.0426   0.7305
C   1.5028   -1.0599   0.6828
Cl   3.1312   -0.3867   0.7373
H   1.3833   -1.6900   1.5646
C   0.7803   1.2834   0.0978
O   0.8784   2.2890   0.7435
O   1.0704   1.1577   -1.1834
C   1.6194   2.3234   -1.8067
H   0.9081   3.1450   -1.7449
H   2.5455   2.6027   -1.3071
H   1.8048   2.0457   -2.8386
O   -0.1047   0.1986   2.0255
H   0.0853   1.1278   2.2275
C   -2.1253   -0.3344   -0.0678
C   -3.1443   -1.1887   -0.0517
C   -4.5962   -0.8628   -0.0232
H   -5.0950   -1.3039   -0.8889
H   -5.0604   -1.2949   0.8655
H   -4.7735   0.2094   -0.0260
H   -2.8711   -2.2391   -0.0378
Cl   -2.3675   1.3889   -0.0417
H   -0.7505   -2.3613   -1.5471
*
