! GFN2-XTB OPT NUMFREQ

%pal
   nprocs 16
end

%maxcore 2000

* xyz 0 1
C   -0.7412   -0.7836   -1.1811
C   0.7287   -1.1794   -1.3471
C   1.4192   -0.4391   -0.2091
C   0.6557   0.8854   -0.0878
N   -0.6460   0.5663   -0.6662
C   -1.7895   1.2542   -0.4295
O   -2.8920   0.8596   -0.7312
O   -1.5422   2.4322   0.1674
C   -2.7021   3.2151   0.4352
H   -3.2207   3.4549   -0.4917
H   -2.3424   4.1192   0.9172
H   -3.3819   2.6749   1.0919
H   0.5630   1.2138   0.9441
H   1.1643   1.6659   -0.6600
O   2.7941   -0.2656   -0.5460
C   3.5724   0.2682   0.4143
O   3.1484   0.6085   1.4829
C   4.9997   0.3694   -0.0361
H   5.3776   -0.6251   -0.2714
H   5.5944   0.8221   0.7505
H   5.0546   0.9667   -0.9456
H   1.3553   -0.9900   0.7298
H   0.8817   -2.2561   -1.3243
H   1.1031   -0.7898   -2.2945
C   -1.4610   -1.7497   -0.2470
O   -1.9367   -2.7850   -0.6168
O   -1.4402   -1.3458   1.0261
C   -2.1102   -2.2076   1.9462
H   -2.0037   -1.7427   2.9212
H   -1.6553   -3.1969   1.9373
H   -3.1603   -2.2951   1.6727
H   -1.2892   -0.8148   -2.1210
*
