! GFN2-XTB OPT NUMFREQ

%pal
   nprocs 16
end

%maxcore 2000

* xyz 0 1
C   0.0997   1.4531   -0.0000
C   -1.2809   1.4313   0.0000
C   -1.9223   0.1870   -0.0000
C   0.0344   -0.9418   -0.0001
C   0.8031   0.2157   -0.0001
C   0.6929   -2.3033   -0.0002
C   2.1707   -2.3438   0.0001
C   2.8927   -1.2291   0.0001
C   2.2851   0.1314   -0.0001
C   -3.9255   -1.0499   0.0000
C   0.1238   3.8126   0.0001
O   -3.2568   0.2094   0.0000
O   0.8128   2.5769   -0.0000
O   0.0420   -3.3156   0.0001
O   3.0182   1.0926   0.0000
N   -1.2961   -0.9695   -0.0000
H   -1.8838   2.3250   0.0001
H   2.6131   -3.3322   0.0002
H   3.9758   -1.2334   0.0002
H   -3.6585   -1.6256   -0.8849
H   -3.6585   -1.6257   0.8849
H   -4.9851   -0.8124   0.0001
H   0.8931   4.5784   0.0001
H   -0.4971   3.9135   -0.8928
H   -0.4971   3.9134   0.8930
*
