! GFN2-XTB OPT NUMFREQ

%pal
   nprocs 16
end

%maxcore 2000

* xyz 0 1
C   -2.3561   -0.7359   -0.6392
C   -2.6916   0.7434   -0.7589
C   -0.9072   1.2242   0.9253
C   -0.6403   -0.2784   1.0256
C   -1.4570   1.5863   -0.4509
C   0.5668   -0.7269   0.1954
C   2.7921   -0.2653   -0.4067
C   3.8161   0.8216   -0.1906
O   0.6145   -1.7536   -0.4268
O   1.5965   0.1231   0.2846
N   -1.8383   -1.0264   0.6990
H   -1.6363   -1.0072   -1.4243
H   -3.2498   -1.3427   -0.7885
H   -3.4859   0.9878   -0.0483
H   -3.0653   0.9552   -1.7622
H   -1.6476   1.4732   1.6886
H   0.0046   1.7766   1.1456
H   -0.3632   -0.5111   2.0596
H   -0.6897   1.3989   -1.2110
H   -1.6914   2.6511   -0.4943
H   3.1249   -1.2276   -0.0152
H   2.5550   -0.4025   -1.4625
H   4.0288   0.9449   0.8709
H   3.4575   1.7722   -0.5846
H   4.7433   0.5627   -0.7017
H   -1.6412   -2.0172   0.7723
*
