! GFN2-XTB OPT NUMFREQ

%pal
   nprocs 16
end

%maxcore 2000

* xyz 0 1
C   -1.8969   -1.1944   1.6516
C   -1.3471   -0.5622   0.6240
C   0.0756   -0.0684   0.6064
C   0.9671   -0.8540   -0.3545
C   2.4273   -0.6804   -0.0243
O   2.8640   -0.3580   1.0449
O   3.2130   -0.9792   -1.0698
C   0.0877   1.4295   0.3381
O   -0.7133   2.1959   0.7894
O   1.1182   1.8138   -0.4287
C   -2.1160   -0.2982   -0.6232
O   -1.6409   0.2451   -1.5858
O   -3.3867   -0.7233   -0.5875
H   -1.3349   -1.3726   2.5598
H   -2.9194   -1.5427   1.6109
H   0.4872   -0.1787   1.6131
H   0.7878   -0.5755   -1.3905
H   0.7543   -1.9224   -0.2599
H   4.1304   -0.8786   -0.7766
H   1.0606   2.7750   -0.5280
H   -3.7864   -0.4907   -1.4375
*
