! GFN2-XTB OPT NUMFREQ

%pal
   nprocs 16
end

%maxcore 2000

* xyz 0 1
C   2.4393   -0.0128   0.2914
C   1.2018   0.7508   0.2335
C   -1.0358   1.1044   0.6440
C   -1.2167   2.3186   1.1695
C   -0.2325   3.0862   1.9914
C   -1.9578   -2.0480   0.9645
C   -2.8158   -3.2499   1.2792
C   -1.1141   0.4372   -2.4743
C   -0.0044   -0.3420   -3.1395
C   4.7582   -0.7888   0.0189
C   3.9905   -1.6770   0.7177
C   2.6584   -1.2326   0.8746
O   -2.8330   -0.9603   0.6258
O   -1.7001   -0.3901   -1.4634
O   -3.5052   1.2137   -0.5067
N   0.1264   0.3210   0.7498
P   -2.4072   0.2987   -0.2151
S   3.8694   0.5843   -0.4497
H   1.2353   1.7136   -0.2913
H   -2.1942   2.7618   1.0108
H   -0.6979   3.4068   2.9251
H   0.0822   3.9934   1.4701
H   0.6544   2.5010   2.2281
H   -1.3559   -1.7468   1.8226
H   -1.2867   -2.2416   0.1262
H   -2.1843   -4.0915   1.5660
H   -3.4056   -3.5350   0.4089
H   -3.4955   -3.0273   2.1010
H   -1.8959   0.7201   -3.1803
H   -0.7286   1.3562   -2.0194
H   0.4572   0.2570   -3.9249
H   0.7597   -0.6129   -2.4092
H   -0.3973   -1.2560   -3.5839
H   5.8005   -0.8746   -0.2416
H   4.3687   -2.6120   1.1037
H   1.8766   -1.7710   1.3904
*
