! GFN2-XTB OPT NUMFREQ

%pal
   nprocs 16
end

%maxcore 2000

* xyz 0 1
N   0.0488   -0.0411   0.1959
C   -0.0496   -1.4009   0.0553
N   1.1151   -1.9431   -0.1810
C   2.0285   -0.9199   -0.1778
C   1.3914   0.2762   0.0642
C   -1.0031   0.8726   0.4307
C   -2.0983   1.0764   -0.4072
C   -2.9249   2.1175   0.2552
C   -4.1305   2.6294   -0.1761
C   -4.8541   2.3156   -1.3269
C   -4.5211   1.4362   -2.3425
C   -3.3938   0.6271   -2.4959
C   -2.3226   0.4672   -1.6361
C   -1.0923   1.7363   1.5342
C   -2.2499   2.4914   1.4313
C   -1.3155   -2.1560   0.1007
C   -2.1639   -2.1834   1.2055
C   -3.3504   -2.9022   1.1819
C   -3.6925   -3.6279   0.0529
C   -2.8417   -3.6490   -1.0439
C   -1.6661   -2.9193   -1.0128
C   3.4517   -1.1904   -0.4284
C   3.9775   -2.4342   -0.0775
C   5.3133   -2.7247   -0.3060
C   6.1447   -1.7794   -0.8920
C   5.6260   -0.5446   -1.2578
C   4.2895   -0.2523   -1.0326
C   1.9022   1.6465   0.2090
C   2.9679   1.8977   1.0733
C   3.4740   3.1807   1.2117
C   2.9158   4.2317   0.4960
C   1.8517   3.9916   -0.3628
C   1.3490   2.7076   -0.5084
Cl   -1.7281   -1.3778   2.6755
H   -4.5732   3.3788   0.4737
H   -5.7937   2.8410   -1.4482
H   -5.2425   1.3725   -3.1503
H   -3.3579   0.0415   -3.4066
H   -1.5514   -0.2256   -1.9595
H   -0.3624   1.7831   2.3296
H   -2.5965   3.2329   2.1340
H   -3.9856   -2.8993   2.0568
H   -4.6178   -4.1887   0.0393
H   -3.0935   -4.2316   -1.9198
H   -0.9870   -2.9275   -1.8562
H   3.3199   -3.1669   0.3713
H   5.7073   -3.6931   -0.0250
H   7.1879   -2.0061   -1.0700
H   6.2625   0.1925   -1.7306
H   3.8901   0.7055   -1.3402
H   3.3996   1.0747   1.6292
H   4.3026   3.3608   1.8842
H   3.3085   5.2341   0.6072
H   1.4139   4.8057   -0.9257
H   0.5229   2.5220   -1.1840
*
