! GFN2-XTB OPT NUMFREQ

%pal
   nprocs 16
end

%maxcore 2000

* xyz 0 1
C   -2.1293   1.8883   1.2375
C   -2.0343   2.5132   -0.1474
C   -3.3406   2.3001   -0.9012
C   -3.7394   0.8208   -1.0395
C   -3.7347   0.1658   0.3725
C   -4.1302   -1.3163   0.4004
C   -2.9849   -2.3137   0.1342
C   -1.5841   -1.7473   0.1671
C   -1.3031   -0.4595   0.6439
C   -2.4410   0.3872   1.2009
C   0.0091   -0.0092   0.6317
C   1.0469   -0.8029   0.1521
C   0.7749   -2.0762   -0.3296
C   -0.5402   -2.5228   -0.3135
C   -5.1661   0.7888   -1.6021
C   -2.8274   0.1364   -2.0650
C   -2.6712   -0.0734   2.6518
C   3.3650   -1.0000   -0.3005
C   4.6416   -0.2101   -0.1915
C   4.6601   1.1131   0.2270
C   5.8637   1.8048   0.2989
C   7.0531   1.1829   -0.0469
C   7.0379   -0.1419   -0.4662
C   5.8390   -0.8319   -0.5360
O   2.2870   -0.2419   0.1908
H   -2.9465   2.3732   1.7835
H   -1.2281   2.0756   1.8244
H   -1.8267   3.5818   -0.0610
H   -1.2003   2.0761   -0.7021
H   -3.2864   2.7445   -1.8992
H   -4.1409   2.8258   -0.3667
H   -4.5177   0.7047   0.9219
H   -4.5545   -1.5237   1.3828
H   -4.9385   -1.4995   -0.3067
H   -3.0469   -3.1245   0.8657
H   -3.1246   -2.7918   -0.8377
H   0.2711   0.9789   0.9837
H   1.5542   -2.7165   -0.7155
H   -0.7582   -3.5138   -0.6972
H   -5.4750   -0.2172   -1.8881
H   -5.8861   1.1756   -0.8770
H   -5.2233   1.4120   -2.4974
H   -3.0725   -0.9222   -2.1685
H   -2.9775   0.6043   -3.0412
H   -1.7699   0.2099   -1.8166
H   -3.5593   0.4067   3.0708
H   -2.7936   -1.1543   2.7236
H   -1.8096   0.1999   3.2638
H   3.4584   -1.9331   0.2680
H   3.1858   -1.2676   -1.3492
H   3.7323   1.5971   0.4972
H   5.8682   2.8361   0.6277
H   7.9883   1.7243   0.0106
H   7.9615   -0.6372   -0.7366
H   5.8303   -1.8668   -0.8610
*
