! GFN2-XTB OPT NUMFREQ

%pal
   nprocs 16
end

%maxcore 2000

* xyz 0 1
O   -0.2772   0.2535   -0.6522
C   0.6666   -0.7432   -0.3140
C   0.2565   -1.3685   1.0211
N   -1.1270   -1.8308   0.9835
C   -1.9371   -1.3184   0.1588
C   -1.5752   -0.2330   -0.8631
C   2.0454   -0.1435   -0.2805
C   2.2388   1.2305   -0.2104
C   3.5236   1.7504   -0.1223
C   4.6229   0.9045   -0.1002
C   4.4339   -0.4695   -0.1730
C   3.1517   -0.9884   -0.2652
C   0.4256   -0.4226   2.2043
C   -3.3658   -1.7832   0.1428
C   -2.5078   0.9654   -0.7930
C   -2.5112   1.6659   0.5584
C   -3.5233   2.8037   0.6011
O   -1.7176   -0.7607   -2.1652
H   0.6557   -1.5353   -1.0775
H   0.8755   -2.2540   1.1892
H   1.3790   1.8862   -0.2312
H   3.6652   2.8224   -0.0715
H   5.6229   1.3126   -0.0321
H   5.2862   -1.1365   -0.1646
H   3.0078   -2.0615   -0.3317
H   0.0013   -0.8796   3.0972
H   1.4784   -0.2047   2.3805
H   -0.0991   0.5144   2.0116
H   -4.0147   -1.0147   0.5702
H   -3.4561   -2.6879   0.7381
H   -3.7050   -1.9649   -0.8775
H   -2.1804   1.6515   -1.5779
H   -3.5119   0.6304   -1.0595
H   -2.7330   0.9449   1.3522
H   -1.5093   2.0492   0.7612
H   -3.5103   3.3120   1.5651
H   -4.5358   2.4324   0.4308
H   -3.3082   3.5436   -0.1720
H   -1.2279   -1.5869   -2.2354
*
