! GFN2-XTB OPT NUMFREQ

%pal
   nprocs 16
end

%maxcore 2000

* xyz 0 1
C   -2.9746   0.4052   0.9915
C   -4.2194   0.3734   0.3667
C   -4.5351   -0.5944   -0.5851
C   -3.6112   -1.5621   -0.9540
C   -2.3628   -1.5283   -0.3520
C   -2.0501   -0.5592   0.6010
C   0.0010   -1.6326   -0.0109
C   -0.6389   -0.7617   1.0975
C   -1.1854   -2.4486   -0.5508
C   1.2050   -2.4492   0.4872
C   2.3619   -1.4951   0.3350
C   2.0295   -0.4883   -0.5707
C   0.6205   -0.6921   -1.0732
C   2.9372   0.5068   -0.9236
C   3.6126   -1.5347   0.9314
C   4.5233   -0.5440   0.5934
C   4.1925   0.4570   -0.3192
C   6.5408   0.6164   0.0806
C   5.3505   1.4140   -0.4832
C   5.9217   -0.3347   1.1197
C   -6.2791   1.0299   -0.6444
C   -5.9541   -0.4144   -1.0658
C   -5.3998   1.2892   0.5930
C   -2.6228   1.4703   1.9951
C   -2.0042   2.6950   1.3174
C   2.5530   1.6134   -1.8683
C   1.9731   2.8131   -1.1156
H   -3.8547   -2.3138   -1.6967
H   -0.6485   -1.3002   2.0523
H   -0.0846   0.1666   1.2569
H   -1.0416   -2.7598   -1.5873
H   -1.3188   -3.3578   0.0471
H   1.0690   -2.8156   1.5065
H   1.3573   -3.3238   -0.1561
H   0.0484   0.2331   -1.1802
H   0.6358   -1.1779   -2.0557
H   3.8717   -2.3146   1.6390
H   6.9827   0.0251   -0.7236
H   7.3220   1.2523   0.4949
H   5.1765   2.3220   0.1042
H   5.5102   1.7284   -1.5153
H   5.8805   0.1407   2.1050
H   6.4803   -1.2643   1.2326
H   -7.3394   1.1916   -0.4552
H   -5.9748   1.7093   -1.4427
H   -6.0679   -0.5807   -2.1373
H   -6.6121   -1.1253   -0.5557
H   -5.9241   1.0064   1.5125
H   -5.1203   2.3387   0.6950
H   -3.5179   1.7687   2.5449
H   -1.9217   1.0665   2.7285
H   -1.7421   3.4639   2.0449
H   -1.0999   2.4138   0.7752
H   -2.6989   3.1266   0.5951
H   1.8191   1.2444   -2.5874
H   3.4253   1.9314   -2.4423
H   1.0903   2.5150   -0.5474
H   2.7020   3.2113   -0.4082
H   1.6865   3.6124   -1.7998
*
