! GFN2-XTB OPT NUMFREQ

%pal
   nprocs 16
end

%maxcore 2000

* xyz 0 1
O   5.5807   0.2302   -0.1063
C   5.0328   0.3542   1.1830
C   3.7523   -0.4863   1.1530
N   3.3761   -0.2594   -0.2537
C   4.5164   0.2722   -1.0428
C   4.0605   -1.9620   1.3965
C   2.7547   0.0498   2.1713
C   2.2154   -0.5878   -0.8609
O   1.9794   -0.4006   -2.0363
C   4.2394   1.7018   -1.4853
C   4.9177   -0.6189   -2.2030
O   1.3286   -1.1428   -0.0031
C   0.0843   -1.5993   -0.5722
C   -1.0859   -1.1971   0.3470
N   -1.6191   0.1317   0.0075
C   -2.4648   0.1302   -1.1815
C   -3.7248   -0.6730   -0.9874
C   -4.0093   -1.7752   -1.7837
C   -5.1714   -2.5126   -1.5874
C   -6.0596   -2.1512   -0.5866
C   -5.7839   -1.0481   0.2144
C   -4.6249   -0.3161   0.0141
C   0.1959   -3.0791   -0.8958
C   -0.8412   -1.2816   1.8648
C   -2.1705   -1.1507   2.6057
C   -0.6047   1.1785   -0.0772
C   -1.1976   2.5589   0.0748
C   -0.8802   3.5755   -0.8174
C   -1.4078   4.8514   -0.6569
C   -2.2639   5.1206   0.3998
C   -2.5892   4.1085   1.2958
C   -2.0599   2.8380   1.1328
C   -0.1415   -2.5639   2.3073
H   5.7575   -0.0181   1.9060
H   4.7955   1.3996   1.4148
H   3.1858   -2.5708   1.1663
H   4.8906   -2.2828   0.7658
H   4.3303   -2.1246   2.4417
H   2.3765   1.0263   1.8642
H   3.2613   0.1647   3.1325
H   1.9181   -0.6300   2.3064
H   4.0490   2.3378   -0.6203
H   3.3676   1.7209   -2.1377
H   5.1037   2.0880   -2.0253
H   4.1809   -0.5735   -3.0000
H   5.8831   -0.2761   -2.5751
H   5.0210   -1.6479   -1.8591
H   -0.0436   -1.0722   -1.5168
H   -1.8898   -1.9073   0.1262
H   -1.9285   -0.2350   -2.0726
H   -2.7334   1.1696   -1.3860
H   -3.3132   -2.0597   -2.5653
H   -5.3795   -3.3696   -2.2152
H   -6.9647   -2.7235   -0.4299
H   -6.4773   -0.7590   0.9939
H   -4.4010   0.5438   0.6351
H   0.3848   -3.6860   -0.0132
H   1.0085   -3.2315   -1.6075
H   -0.7306   -3.4222   -1.3593
H   -0.2090   -0.4360   2.1500
H   -2.0095   -1.1345   3.6849
H   -2.8186   -2.0008   2.3741
H   -2.6970   -0.2439   2.3153
H   -0.0396   1.1322   -1.0219
H   0.1187   1.0161   0.7244
H   -0.2173   3.3642   -1.6490
H   -1.1539   5.6321   -1.3625
H   -2.6791   6.1121   0.5253
H   -3.2567   4.3130   2.1233
H   -2.3128   2.0429   1.8242
H   0.8564   -2.6618   1.8817
H   -0.0457   -2.5745   3.3945
H   -0.7270   -3.4421   2.0225
*
