! GFN2-XTB OPT NUMFREQ

%pal
   nprocs 16
end

%maxcore 2000

* xyz 0 1
C   -5.0094   -0.8666   -0.6899
C   -5.1771   -0.5210   0.6198
C   -4.0639   -0.2493   1.4443
C   -2.7861   -0.3384   0.9045
C   -2.6100   -0.6983   -0.4569
C   -3.7195   -0.9619   -1.2551
O   -3.6396   -1.3017   -2.5426
H   -2.6901   -1.3284   -2.7857
C   -1.2672   -0.7829   -1.0279
O   -1.0765   -1.0865   -2.2033
C   -0.1016   -0.4803   -0.1553
C   -0.2826   -0.1509   1.1259
C   -1.6181   -0.0582   1.7404
O   -1.7210   0.2620   2.9213
H   0.5535   0.0782   1.7737
C   1.2391   -0.5025   -0.8236
C   1.4579   0.7612   -1.6816
C   1.4317   2.0216   -0.8688
C   0.3787   2.8098   -0.6557
C   0.4812   4.0229   0.2240
H   -0.2266   3.9531   1.0546
H   1.4834   4.1411   0.6330
H   0.2242   4.9267   -0.3345
C   -0.9896   2.5771   -1.2306
H   -1.6965   2.3273   -0.4323
H   -1.0208   1.7795   -1.9705
H   -1.3624   3.4898   -1.7017
H   2.3637   2.2854   -0.3781
H   0.7042   0.7564   -2.4677
H   2.4273   0.6397   -2.1680
O   2.2350   -0.5706   0.2003
C   3.4303   -1.0815   -0.1524
O   3.6727   -1.4910   -1.2539
C   4.4192   -1.0666   0.9907
C   4.8422   -2.5000   1.3068
H   5.2842   -2.9600   0.4228
H   3.9943   -3.1078   1.6238
H   5.5821   -2.5011   2.1075
C   5.6188   -0.2026   0.5906
C   5.2301   1.2260   0.2331
H   4.6856   1.7015   1.0518
H   4.5910   1.2457   -0.6531
H   6.1092   1.8319   0.0155
H   6.3274   -0.2050   1.4219
H   6.1151   -0.6787   -0.2583
H   3.9252   -0.6209   1.8559
H   1.3201   -1.3797   -1.4655
O   -4.3033   0.0831   2.7136
H   -3.4360   0.2391   3.1468
H   -6.1627   -0.4462   1.0599
H   -5.8566   -1.0759   -1.3294
*
