! GFN2-XTB OPT NUMFREQ

%pal
   nprocs 16
end

%maxcore 2000

* xyz 0 1
C   1.7165   -2.1161   0.2807
C   3.0640   -1.7890   0.1309
C   3.4501   -0.4887   -0.1752
C   2.5212   0.5415   -0.3377
C   -0.9885   0.3982   -0.0518
C   -0.7178   -1.1154   0.1668
C   0.7928   -1.1057   0.1234
C   1.1886   0.1904   -0.1724
C   2.9262   1.9594   -0.6257
C   -2.3548   1.0591   -0.0889
C   -2.2195   2.5092   0.3848
C   -3.3852   0.3420   0.7899
C   -2.8542   1.0658   -1.5444
C   -1.2966   -1.9760   -0.9633
C   -0.7740   -1.0194   2.5410
C   2.8285   2.8388   0.6225
C   -0.7414   -1.6596   -2.3467
O   -1.2625   -1.6260   1.3636
N   0.0760   1.0730   -0.2647
H   1.4090   -3.1282   0.5164
H   3.8202   -2.5541   0.2504
H   4.5038   -0.2627   -0.2931
H   3.9467   1.9704   -1.0128
H   2.2753   2.3676   -1.4008
H   -3.1967   2.9947   0.3548
H   -1.5264   3.0627   -0.2459
H   -1.8457   2.5483   1.4098
H   -4.3401   0.8642   0.7032
H   -3.0926   0.3507   1.8403
H   -3.5347   -0.6955   0.4966
H   -2.1341   1.5672   -2.1925
H   -3.0219   0.0573   -1.9242
H   -3.8020   1.6055   -1.5958
H   -1.0753   -3.0120   -0.6959
H   -2.3828   -1.8751   -0.9445
H   -1.3837   -1.3920   3.3616
H   -0.8611   0.0726   2.4974
H   0.2732   -1.2774   2.7176
H   1.8011   2.8555   0.9875
H   3.1329   3.8627   0.4032
H   3.4684   2.4529   1.4174
H   0.3134   -1.9247   -2.4153
H   -1.2820   -2.2221   -3.1078
H   -0.8319   -0.5991   -2.5868
*
