! GFN2-XTB OPT NUMFREQ

%pal
   nprocs 16
end

%maxcore 2000

* xyz 0 1
C   -2.2861   1.0394   -0.0005
C   -3.6288   1.3600   -0.0003
C   -4.5632   0.3298   0.0002
C   -2.9341   -1.2498   0.0003
C   -1.9057   -0.3036   -0.0001
C   -0.5207   -0.7653   -0.0003
C   0.5798   -0.0012   -0.0003
C   1.9081   -0.5700   -0.0004
C   3.0759   0.0951   -0.0001
C   3.2749   1.5757   0.0005
C   4.3031   -0.7241   -0.0001
O   5.4160   -0.2640   0.0003
N   -4.2272   -0.9553   0.0005
H   -1.5416   1.8252   -0.0009
H   -3.9561   2.3907   -0.0005
H   -5.6249   0.5500   0.0004
H   -2.6829   -2.3067   0.0007
H   -0.3938   -1.8449   -0.0004
H   0.4911   1.0783   -0.0001
H   1.9535   -1.6571   -0.0008
H   3.8577   1.8703   0.8747
H   2.3380   2.1261   -0.0013
H   3.8612   1.8705   -0.8713
H   4.1408   -1.8196   -0.0006
*
