! GFN2-XTB OPT NUMFREQ

%pal
   nprocs 16
end

%maxcore 2000

* xyz 0 1
C   0.9574   -0.0359   0.2142
C   -0.1387   -1.0599   0.3282
C   0.8151   -0.8461   1.4622
Cl   2.3014   -0.3917   -0.8503
Cl   0.5311   1.6552   0.2666
O   -1.4310   -0.6385   0.5193
C   -2.1050   -0.3708   -0.7057
C   -3.4578   0.2115   -0.3762
H   -0.0126   -1.9440   -0.2925
H   1.5663   -1.5962   1.6617
H   0.4130   -0.3223   2.3183
H   -2.2015   -1.3043   -1.2730
H   -1.5093   0.3284   -1.3012
H   -4.0317   -0.4836   0.2359
H   -4.0146   0.4136   -1.2911
H   -3.3395   1.1439   0.1750
*
