! GFN2-XTB OPT NUMFREQ

%pal
   nprocs 16
end

%maxcore 2000

* xyz 0 1
O   -0.8032   -2.2303   1.0721
N   0.5620   -2.0719   0.9796
C   0.8434   -0.8824   0.6442
C   -0.3611   -0.0168   0.3902
C   -1.4699   -0.9732   0.8459
C   -2.4445   -1.1091   -0.3393
C   -1.5465   -0.8494   -1.5488
C   -0.5536   0.2230   -1.1233
C   2.2357   -0.4472   0.4147
C   2.8374   0.4950   1.2484
C   4.1244   0.9540   1.0319
C   4.8409   0.4674   -0.0490
C   4.2768   -0.4645   -0.9033
C   2.9855   -0.9087   -0.6676
O   -3.3505   0.0203   -0.3216
C   -4.2475   0.1762   0.6662
O   -4.3473   -0.5461   1.6187
C   -3.2005   -2.4203   -0.4165
O   -1.1013   1.5205   -1.3843
C   -0.2473   2.5465   -1.2333
O   0.8919   2.4077   -0.8782
Cl   1.9623   1.1024   2.6127
Cl   2.2999   -2.0454   -1.7818
C   -5.1062   1.3821   0.4061
C   -0.9048   3.8558   -1.5584
H   -0.3091   0.9230   0.9341
H   -1.9762   -0.6921   1.7659
H   -0.9873   -1.7632   -1.7613
H   -2.1174   -0.5689   -2.4325
H   0.3928   0.1488   -1.6588
H   4.5508   1.6822   1.7067
H   5.8476   0.8199   -0.2285
H   4.8229   -0.8474   -1.7535
H   -3.8670   -2.4000   -1.2802
H   -2.4921   -3.2376   -0.5357
H   -3.7849   -2.5933   0.4833
H   -4.4764   2.2508   0.2196
H   -5.7034   1.2101   -0.4894
H   -5.7551   1.5535   1.2589
H   -0.1828   4.6587   -1.4509
H   -1.7474   4.0149   -0.8858
H   -1.2951   3.8276   -2.5750
*
